
/chalmers/sw/sup64/ansys-18.1/v181/fluent/fluent18.1.0/bin/fluent -r18.1.0 3ddp -pshmem -host -alnamd64 -t3 -mpi=ibmmpi -path/chalmers/sw/sup64/ansys-18.1/v181/fluent -ssh -cx localhost:35430:39222 Starting /chalmers/sw/sup64/ansys-18.1/v181/fluent/fluent18.1.0/lnamd64/3ddp_host/fluent.18.1.0 host -cx localhost:35430:39222 "(list (rpsetvar (QUOTE parallel/function) "fluent 3ddp -flux -node -alnamd64 -r18.1.0 -t3 -pshmem -mpi=ibmmpi -ssh") (rpsetvar (QUOTE parallel/rhost) "") (rpsetvar (QUOTE parallel/ruser) "") (rpsetvar (QUOTE parallel/nprocs_string) "3") (rpsetvar (QUOTE parallel/auto-spawn?) #t) (rpsetvar (QUOTE parallel/trace-level) 0) (rpsetvar (QUOTE parallel/remote-shell) 1) (rpsetvar (QUOTE parallel/path) "/chalmers/sw/sup64/ansys-18.1/v181/fluent") (rpsetvar (QUOTE parallel/hostsfile) "") )"                Welcome to ANSYS Fluent Release 18.1                Copyright 2017 SAS IP, Inc. All Rights Reserved.               Unauthorized use, distribution or duplication is prohibited.               This product is subject to U.S. laws governing export and re-export.               For full Legal Notice, see documentation.  Build Time: Apr 11 2017 14:22:57 EDT  Build Id: 10162           --------------------------------------------------------------      This is an academic version of ANSYS FLUENT. Usage of this product      license is limited to the terms and conditions specified in your ANSYS      license form, additional terms section.      -------------------------------------------------------------- Host spawning Node 0 on machine "tfd113.m2.rh69.ii.2.hb.s.cdal.chalmers.se" (unix).  999999: mpt_get_dot_address: warning: tfd113.m2.rh69.ii.2.hb.s.cdal.chalmers.se -> 127.0.0.1. Check your system network configuration! 999999: mpt_get_dot_address: warning: tfd113.m2.rh69.ii.2.hb.s.cdal.chalmers.se -> 127.0.0.1. Check your system network configuration!/chalmers/sw/sup64/ansys-18.1/v181/fluent/fluent18.1.0/bin/fluent -r18.1.0 3ddp -flux -node -alnamd64 -t3 -pshmem -mpi=ibmmpi -ssh -mport 127.0.0.1:127.0.0.1:42671:0 Starting /chalmers/sw/sup64/ansys-18.1/v181/fluent/fluent18.1.0/multiport/mpi/lnamd64/ibmmpi/bin/mpirun -e MPI_IBV_NO_FORK_SAFE=1 -e MPI_USE_MALLOPT_MMAP_MAX=0 -np 3 /chalmers/sw/sup64/ansys-18.1/v181/fluent/fluent18.1.0/lnamd64/3ddp_node/fluent_mpi.18.1.0 node -mpiw ibmmpi -pic shmem -mport 127.0.0.1:127.0.0.1:42671:0    2: mpt_get_dot_address: warning: tfd113.m2.rh69.ii.2.hb.s.cdal.chalmers.se -> 127.0.0.1. Check your system network configuration!1: mpt_get_dot_address: warning: tfd113.m2.rh69.ii.2.hb.s.cdal.chalmers.se -> 127.0.0.1. Check your system network configuration!0: mpt_get_dot_address: warning: tfd113.m2.rh69.ii.2.hb.s.cdal.chalmers.se -> 127.0.0.1. Check your system network configuration! ----------------------------------------------------------------------------------- ID    Hostname              Core  O.S.      PID          Vendor                     ----------------------------------------------------------------------------------- n0-2  tfd113.m2.rh69.ii.2.  3/4  Linux-64  18878-18880  Intel(R) Core(TM) i5-7600  host  tfd113.m2.rh69.ii.2.       Linux-64  18696        Intel(R) Core(TM) i5-7600   MPI Option Selected: ibmmpi Selected system interconnect: shared-memory -----------------------------------------------------------------------------------    2: mpt_get_dot_address: warning: tfd113.m2.rh69.ii.2.hb.s.cdal.chalmers.se -> 127.0.0.1. Check your system network configuration!1: mpt_get_dot_address: warning: tfd113.m2.rh69.ii.2.hb.s.cdal.chalmers.se -> 127.0.0.1. Check your system network configuration! 0: mpt_get_dot_address: warning: tfd113.m2.rh69.ii.2.hb.s.cdal.chalmers.se -> 127.0.0.1. Check your system network configuration! 999999: mpt_get_dot_address: warning: tfd113.m2.rh69.ii.2.hb.s.cdal.chalmers.se -> 127.0.0.1. Check your system network configuration!Cleanup script file is /chalmers/users/gabgus/python-scripts/masterProject/datafiles/kfiles/cleanup-fluent-tfd113.m2.rh69.ii.2.hb.s.cdal.chalmers.se-18696.sh  >  Multicore processors detected. Processor affinity set! Reading "/chalmers/users/gabgus/Downloads/dysor_case1_extract.cas"... Buffering for file scan...        1944 hexahedral cells, zone  2, binary.   567600 hexahedral cells, zone  3, binary. Warning: reading 2 partition grid onto 3 compute node machine;          will auto partition.     1944 cell partition ids, zone  2, 2 partitions, binary. Warning: reading 2 partition grid onto 3 compute node machine;          will auto partition.   567600 cell partition ids, zone  3, 2 partitions, binary.      324 quadrilateral interior faces, zone 11, binary.  1681924 quadrilateral interior faces, zone 12, binary.     4212 quadrilateral interior faces, zone 13, binary.     5352 quadrilateral wall faces, zone  6, binary.    17200 quadrilateral wall faces, zone  9, binary.     2583 quadrilateral wall faces, zone 10, binary.      333 quadrilateral pressure-inlet faces, zone  7, binary.     5676 quadrilateral pressure-outlet faces, zone  8, binary.     6600 quadrilateral periodic faces, zone  5, binary.     6600 quadrilateral shadow faces, zone  4, binary.     6600 shadow face pairs, binary.    592185 nodes, binary.   592185 node flags, binary.  Checking the existence of compiled "libudf" UDF library for current platform. If needed will attempt auto-compilation...  Error: Auto-compilation skipped. Could not find "libudf" or input files for creating "libudf" library Error Object: #f  Building...      mesh 	auto partitioning mesh by Metis (fast), 	distributing mesh 		pairs..., 		parts..., 		faces..., 		nodes..., 		shadow nodes..., 		cells...,         bandwidth reduction using Reverse Cuthill-McKee: 8600/3264 = 2.6348 Error at host:   This is an educational executable, and can only be used    with cases containing less than 512000 cells.    Please exit this fluent session and start another session to continue. 
